/*--------------------------------*- C++ -*----------------------------------*\
| =========                 |                                                 |
| \\      /  F ield         | OpenFOAM: The Open Source CFD Toolbox           |
|  \\    /   O peration     | Version:  3.0.x                                 |
|   \\  /    A nd           | Web:      www.OpenFOAM.org                      |
|    \\/     M anipulation  |                                                 |
\*---------------------------------------------------------------------------*/
FoamFile
{
    version     2.0;
    format      ascii;
    class       dictionary;
    object      blockMeshDict;
}
// * * * * * * * * * * * * * * * * * * * * * * * * * * * * * * * * * * * * * //


xmin   -50;
xmax   70;
ymin   -100;
ymax   250;
zmin     0;
zmax   50;
xs  12;
ys  35;
zs  5;

// xs #calc "($xmax - $xmin)*.2"; 
// ys #calc "($ymax - $ymin)*.2"; 
// zs #calc "($zmax - $zmin)*.2";

convertToMeters 1;

vertices
(
    ($xmin $ymin $zmin)
    ($xmax $ymin $zmin)
    ($xmax $ymax $zmin)
    ($xmin $ymax $zmin)
    ($xmin $ymin $zmax)
    ($xmax $ymin $zmax)
    ($xmax $ymax $zmax)
    ($xmin $ymax $zmax)
);

blocks
(
    hex (0 1 2 3 4 5 6 7) ( $xs $ys $zs ) simpleGrading (1 1 1)
);

edges
(
);

boundary
(
    inlet
    {
        type patch;
        faces
        (
            (0 4 5 1) //-Y
            
        );
    }

    outlet
    {
        type patch;
        faces
        (
            (3 2 6 7) //Y
        );
    }

    ground
    {
        type wall;
        faces
        (
            (0 1 2 3) //-Z
        );
    }

    slips
    {
        type symmetry;
        faces
        (
            (0 3 7 4) //-X
            (1 5 6 2) // X
            (4 7 6 5) // Z
        );
    }

);

mergePatchPairs
(
);

// ************************************************************************* //
