/*--------------------------------*- C++ -*----------------------------------*\
| =========                 |                                                 |
| \\      /  F ield         | OpenFOAM: The Open Source CFD Toolbox           |
|  \\    /   O peration     | Version:  3.0.x                                 |
|   \\  /    A nd           | Web:      www.OpenFOAM.org                      |
|    \\/     M anipulation  |                                                 |
\*---------------------------------------------------------------------------*/
FoamFile
{
    version     2.0;
    format      ascii;
    class       volScalarField;
    object      p;
}
// * * * * * * * * * * * * * * * * * * * * * * * * * * * * * * * * * * * * * //

dimensions       [0 2 -2 0 0 0 0]; //[1 -1 -2 0 0 0 0]; //from wind around bldgs: [0 2 -2 0 0 0 0];

internalField   uniform 0;

boundaryField
{
    "(inlet|.*_in|.*_out)"
    {
        type            zeroGradient;
    }

    outlet
    {
        type            totalPressure;
        p0              uniform 0;
        gamma           1.4;
        value           uniform 0;
    }

    wall
    {
        type            zeroGradient;
    }

    #includeEtc "caseDicts/setConstraintTypes"
}

// ************************************************************************* //
